
---------- Begin Simulation Statistics ----------
final_tick                                  532405000                       # Number of ticks from beginning of simulation (restored from checkpoints and never reset)
host_inst_rate                                 989666                       # Simulator instruction rate (inst/s)
host_mem_usage                                 680296                       # Number of bytes of host memory used
host_op_rate                                   993225                       # Simulator op (including micro ops) rate (op/s)
host_seconds                                     0.26                       # Real time elapsed on the host
host_tick_rate                             2059212701                       # Simulator tick rate (ticks/s)
sim_freq                                 1000000000000                       # Frequency of simulated ticks
sim_insts                                      255749                       # Number of instructions simulated
sim_ops                                        256781                       # Number of ops (including micro ops) simulated
sim_seconds                                  0.000532                       # Number of seconds simulated
sim_ticks                                   532405000                       # Number of ticks simulated
system.cpu.Branches                             21248                       # Number of branches fetched
system.cpu.committedInsts                      255749                       # Number of instructions committed
system.cpu.committedOps                        256781                       # Number of ops (including micro ops) committed
system.cpu.dtb.accesses                             0                       # DTB accesses
system.cpu.dtb.align_faults                         0                       # Number of TLB faults due to alignment restrictions
system.cpu.dtb.domain_faults                        0                       # Number of TLB faults due to domain restrictions
system.cpu.dtb.flush_entries                        0                       # Number of entries that have been flushed from TLB
system.cpu.dtb.flush_tlb                            0                       # Number of times complete TLB was flushed
system.cpu.dtb.flush_tlb_asid                       0                       # Number of times TLB was flushed by ASID
system.cpu.dtb.flush_tlb_mva                        0                       # Number of times TLB was flushed by MVA
system.cpu.dtb.flush_tlb_mva_asid                   0                       # Number of times TLB was flushed by MVA & ASID
system.cpu.dtb.hits                                 0                       # DTB hits
system.cpu.dtb.inst_accesses                        0                       # ITB inst accesses
system.cpu.dtb.inst_hits                            0                       # ITB inst hits
system.cpu.dtb.inst_misses                          0                       # ITB inst misses
system.cpu.dtb.misses                               0                       # DTB misses
system.cpu.dtb.perms_faults                         0                       # Number of TLB faults due to permissions restrictions
system.cpu.dtb.prefetch_faults                      0                       # Number of TLB faults due to prefetch
system.cpu.dtb.read_accesses                        0                       # DTB read accesses
system.cpu.dtb.read_hits                            0                       # DTB read hits
system.cpu.dtb.read_misses                          0                       # DTB read misses
system.cpu.dtb.stage2_mmu.stage2_tlb.accesses            0                       # DTB accesses
system.cpu.dtb.stage2_mmu.stage2_tlb.align_faults            0                       # Number of TLB faults due to alignment restrictions
system.cpu.dtb.stage2_mmu.stage2_tlb.domain_faults            0                       # Number of TLB faults due to domain restrictions
system.cpu.dtb.stage2_mmu.stage2_tlb.flush_entries            0                       # Number of entries that have been flushed from TLB
system.cpu.dtb.stage2_mmu.stage2_tlb.flush_tlb            0                       # Number of times complete TLB was flushed
system.cpu.dtb.stage2_mmu.stage2_tlb.flush_tlb_asid            0                       # Number of times TLB was flushed by ASID
system.cpu.dtb.stage2_mmu.stage2_tlb.flush_tlb_mva            0                       # Number of times TLB was flushed by MVA
system.cpu.dtb.stage2_mmu.stage2_tlb.flush_tlb_mva_asid            0                       # Number of times TLB was flushed by MVA & ASID
system.cpu.dtb.stage2_mmu.stage2_tlb.hits            0                       # DTB hits
system.cpu.dtb.stage2_mmu.stage2_tlb.inst_accesses            0                       # ITB inst accesses
system.cpu.dtb.stage2_mmu.stage2_tlb.inst_hits            0                       # ITB inst hits
system.cpu.dtb.stage2_mmu.stage2_tlb.inst_misses            0                       # ITB inst misses
system.cpu.dtb.stage2_mmu.stage2_tlb.misses            0                       # DTB misses
system.cpu.dtb.stage2_mmu.stage2_tlb.perms_faults            0                       # Number of TLB faults due to permissions restrictions
system.cpu.dtb.stage2_mmu.stage2_tlb.prefetch_faults            0                       # Number of TLB faults due to prefetch
system.cpu.dtb.stage2_mmu.stage2_tlb.read_accesses            0                       # DTB read accesses
system.cpu.dtb.stage2_mmu.stage2_tlb.read_hits            0                       # DTB read hits
system.cpu.dtb.stage2_mmu.stage2_tlb.read_misses            0                       # DTB read misses
system.cpu.dtb.stage2_mmu.stage2_tlb.walker.walkRequestOrigin_Requested::Data            0                       # Table walker requests started/completed, data/inst
system.cpu.dtb.stage2_mmu.stage2_tlb.walker.walkRequestOrigin_Requested::Inst            0                       # Table walker requests started/completed, data/inst
system.cpu.dtb.stage2_mmu.stage2_tlb.walker.walkRequestOrigin_Requested::total            0                       # Table walker requests started/completed, data/inst
system.cpu.dtb.stage2_mmu.stage2_tlb.walker.walkRequestOrigin_Completed::Data            0                       # Table walker requests started/completed, data/inst
system.cpu.dtb.stage2_mmu.stage2_tlb.walker.walkRequestOrigin_Completed::Inst            0                       # Table walker requests started/completed, data/inst
system.cpu.dtb.stage2_mmu.stage2_tlb.walker.walkRequestOrigin_Completed::total            0                       # Table walker requests started/completed, data/inst
system.cpu.dtb.stage2_mmu.stage2_tlb.walker.walkRequestOrigin::total            0                       # Table walker requests started/completed, data/inst
system.cpu.dtb.stage2_mmu.stage2_tlb.walker.walks            0                       # Table walker walks requested
system.cpu.dtb.stage2_mmu.stage2_tlb.write_accesses            0                       # DTB write accesses
system.cpu.dtb.stage2_mmu.stage2_tlb.write_hits            0                       # DTB write hits
system.cpu.dtb.stage2_mmu.stage2_tlb.write_misses            0                       # DTB write misses
system.cpu.dtb.walker.walkRequestOrigin_Requested::Data            0                       # Table walker requests started/completed, data/inst
system.cpu.dtb.walker.walkRequestOrigin_Requested::Inst            0                       # Table walker requests started/completed, data/inst
system.cpu.dtb.walker.walkRequestOrigin_Requested::total            0                       # Table walker requests started/completed, data/inst
system.cpu.dtb.walker.walkRequestOrigin_Completed::Data            0                       # Table walker requests started/completed, data/inst
system.cpu.dtb.walker.walkRequestOrigin_Completed::Inst            0                       # Table walker requests started/completed, data/inst
system.cpu.dtb.walker.walkRequestOrigin_Completed::total            0                       # Table walker requests started/completed, data/inst
system.cpu.dtb.walker.walkRequestOrigin::total            0                       # Table walker requests started/completed, data/inst
system.cpu.dtb.walker.walks                         0                       # Table walker walks requested
system.cpu.dtb.write_accesses                       0                       # DTB write accesses
system.cpu.dtb.write_hits                           0                       # DTB write hits
system.cpu.dtb.write_misses                         0                       # DTB write misses
system.cpu.idle_fraction                     0.000000                       # Percentage of idle cycles
system.cpu.itb.accesses                             0                       # DTB accesses
system.cpu.itb.align_faults                         0                       # Number of TLB faults due to alignment restrictions
system.cpu.itb.domain_faults                        0                       # Number of TLB faults due to domain restrictions
system.cpu.itb.flush_entries                        0                       # Number of entries that have been flushed from TLB
system.cpu.itb.flush_tlb                            0                       # Number of times complete TLB was flushed
system.cpu.itb.flush_tlb_asid                       0                       # Number of times TLB was flushed by ASID
system.cpu.itb.flush_tlb_mva                        0                       # Number of times TLB was flushed by MVA
system.cpu.itb.flush_tlb_mva_asid                   0                       # Number of times TLB was flushed by MVA & ASID
system.cpu.itb.hits                                 0                       # DTB hits
system.cpu.itb.inst_accesses                        0                       # ITB inst accesses
system.cpu.itb.inst_hits                            0                       # ITB inst hits
system.cpu.itb.inst_misses                          0                       # ITB inst misses
system.cpu.itb.misses                               0                       # DTB misses
system.cpu.itb.perms_faults                         0                       # Number of TLB faults due to permissions restrictions
system.cpu.itb.prefetch_faults                      0                       # Number of TLB faults due to prefetch
system.cpu.itb.read_accesses                        0                       # DTB read accesses
system.cpu.itb.read_hits                            0                       # DTB read hits
system.cpu.itb.read_misses                          0                       # DTB read misses
system.cpu.itb.stage2_mmu.stage2_tlb.accesses            0                       # DTB accesses
system.cpu.itb.stage2_mmu.stage2_tlb.align_faults            0                       # Number of TLB faults due to alignment restrictions
system.cpu.itb.stage2_mmu.stage2_tlb.domain_faults            0                       # Number of TLB faults due to domain restrictions
system.cpu.itb.stage2_mmu.stage2_tlb.flush_entries            0                       # Number of entries that have been flushed from TLB
system.cpu.itb.stage2_mmu.stage2_tlb.flush_tlb            0                       # Number of times complete TLB was flushed
system.cpu.itb.stage2_mmu.stage2_tlb.flush_tlb_asid            0                       # Number of times TLB was flushed by ASID
system.cpu.itb.stage2_mmu.stage2_tlb.flush_tlb_mva            0                       # Number of times TLB was flushed by MVA
system.cpu.itb.stage2_mmu.stage2_tlb.flush_tlb_mva_asid            0                       # Number of times TLB was flushed by MVA & ASID
system.cpu.itb.stage2_mmu.stage2_tlb.hits            0                       # DTB hits
system.cpu.itb.stage2_mmu.stage2_tlb.inst_accesses            0                       # ITB inst accesses
system.cpu.itb.stage2_mmu.stage2_tlb.inst_hits            0                       # ITB inst hits
system.cpu.itb.stage2_mmu.stage2_tlb.inst_misses            0                       # ITB inst misses
system.cpu.itb.stage2_mmu.stage2_tlb.misses            0                       # DTB misses
system.cpu.itb.stage2_mmu.stage2_tlb.perms_faults            0                       # Number of TLB faults due to permissions restrictions
system.cpu.itb.stage2_mmu.stage2_tlb.prefetch_faults            0                       # Number of TLB faults due to prefetch
system.cpu.itb.stage2_mmu.stage2_tlb.read_accesses            0                       # DTB read accesses
system.cpu.itb.stage2_mmu.stage2_tlb.read_hits            0                       # DTB read hits
system.cpu.itb.stage2_mmu.stage2_tlb.read_misses            0                       # DTB read misses
system.cpu.itb.stage2_mmu.stage2_tlb.walker.walkRequestOrigin_Requested::Data            0                       # Table walker requests started/completed, data/inst
system.cpu.itb.stage2_mmu.stage2_tlb.walker.walkRequestOrigin_Requested::Inst            0                       # Table walker requests started/completed, data/inst
system.cpu.itb.stage2_mmu.stage2_tlb.walker.walkRequestOrigin_Requested::total            0                       # Table walker requests started/completed, data/inst
system.cpu.itb.stage2_mmu.stage2_tlb.walker.walkRequestOrigin_Completed::Data            0                       # Table walker requests started/completed, data/inst
system.cpu.itb.stage2_mmu.stage2_tlb.walker.walkRequestOrigin_Completed::Inst            0                       # Table walker requests started/completed, data/inst
system.cpu.itb.stage2_mmu.stage2_tlb.walker.walkRequestOrigin_Completed::total            0                       # Table walker requests started/completed, data/inst
system.cpu.itb.stage2_mmu.stage2_tlb.walker.walkRequestOrigin::total            0                       # Table walker requests started/completed, data/inst
system.cpu.itb.stage2_mmu.stage2_tlb.walker.walks            0                       # Table walker walks requested
system.cpu.itb.stage2_mmu.stage2_tlb.write_accesses            0                       # DTB write accesses
system.cpu.itb.stage2_mmu.stage2_tlb.write_hits            0                       # DTB write hits
system.cpu.itb.stage2_mmu.stage2_tlb.write_misses            0                       # DTB write misses
system.cpu.itb.walker.walkRequestOrigin_Requested::Data            0                       # Table walker requests started/completed, data/inst
system.cpu.itb.walker.walkRequestOrigin_Requested::Inst            0                       # Table walker requests started/completed, data/inst
system.cpu.itb.walker.walkRequestOrigin_Requested::total            0                       # Table walker requests started/completed, data/inst
system.cpu.itb.walker.walkRequestOrigin_Completed::Data            0                       # Table walker requests started/completed, data/inst
system.cpu.itb.walker.walkRequestOrigin_Completed::Inst            0                       # Table walker requests started/completed, data/inst
system.cpu.itb.walker.walkRequestOrigin_Completed::total            0                       # Table walker requests started/completed, data/inst
system.cpu.itb.walker.walkRequestOrigin::total            0                       # Table walker requests started/completed, data/inst
system.cpu.itb.walker.walks                         0                       # Table walker walks requested
system.cpu.itb.write_accesses                       0                       # DTB write accesses
system.cpu.itb.write_hits                           0                       # DTB write hits
system.cpu.itb.write_misses                         0                       # DTB write misses
system.cpu.not_idle_fraction                 1.000000                       # Percentage of non-idle cycles
system.cpu.numCycles                          1064810                       # number of cpu cycles simulated
system.cpu.numWorkItemsCompleted                    0                       # number of work items this cpu completed
system.cpu.numWorkItemsStarted                      0                       # number of work items this cpu started
system.cpu.num_busy_cycles               1064809.998000                       # Number of busy cycles
system.cpu.num_cc_register_reads              1193503                       # number of times the CC registers were read
system.cpu.num_cc_register_writes              123150                       # number of times the CC registers were written
system.cpu.num_conditional_control_insts        20874                       # number of instructions that are conditional controls
system.cpu.num_fp_alu_accesses                      0                       # Number of float alu accesses
system.cpu.num_fp_insts                             0                       # number of float instructions
system.cpu.num_fp_register_reads                    0                       # number of times the floating registers were read
system.cpu.num_fp_register_writes                   0                       # number of times the floating registers were written
system.cpu.num_func_calls                         269                       # number of times a function call or return occured
system.cpu.num_idle_cycles                   0.002000                       # Number of idle cycles
system.cpu.num_int_alu_accesses                235899                       # Number of integer alu accesses
system.cpu.num_int_insts                       235899                       # number of integer instructions
system.cpu.num_int_register_reads              509528                       # number of times the integer registers were read
system.cpu.num_int_register_writes             173989                       # number of times the integer registers were written
system.cpu.num_load_insts                      141122                       # Number of load instructions
system.cpu.num_mem_refs                        182383                       # number of memory refs
system.cpu.num_store_insts                      41261                       # Number of store instructions
system.cpu.num_vec_alu_accesses                     0                       # Number of vector alu accesses
system.cpu.num_vec_insts                            0                       # number of vector instructions
system.cpu.num_vec_register_reads                  24                       # number of times the vector registers were read
system.cpu.num_vec_register_writes                  8                       # number of times the vector registers were written
system.cpu.op_class::No_OpClass                     0      0.00%      0.00% # Class of executed instruction
system.cpu.op_class::IntAlu                     74452     28.99%     28.99% # Class of executed instruction
system.cpu.op_class::IntMult                        5      0.00%     28.99% # Class of executed instruction
system.cpu.op_class::IntDiv                         0      0.00%     28.99% # Class of executed instruction
system.cpu.op_class::FloatAdd                       0      0.00%     28.99% # Class of executed instruction
system.cpu.op_class::FloatCmp                       0      0.00%     28.99% # Class of executed instruction
system.cpu.op_class::FloatCvt                       0      0.00%     28.99% # Class of executed instruction
system.cpu.op_class::FloatMult                      0      0.00%     28.99% # Class of executed instruction
system.cpu.op_class::FloatMultAcc                   0      0.00%     28.99% # Class of executed instruction
system.cpu.op_class::FloatDiv                       0      0.00%     28.99% # Class of executed instruction
system.cpu.op_class::FloatMisc                      0      0.00%     28.99% # Class of executed instruction
system.cpu.op_class::FloatSqrt                      0      0.00%     28.99% # Class of executed instruction
system.cpu.op_class::SimdAdd                        0      0.00%     28.99% # Class of executed instruction
system.cpu.op_class::SimdAddAcc                     0      0.00%     28.99% # Class of executed instruction
system.cpu.op_class::SimdAlu                        0      0.00%     28.99% # Class of executed instruction
system.cpu.op_class::SimdCmp                        0      0.00%     28.99% # Class of executed instruction
system.cpu.op_class::SimdCvt                        0      0.00%     28.99% # Class of executed instruction
system.cpu.op_class::SimdMisc                       0      0.00%     28.99% # Class of executed instruction
system.cpu.op_class::SimdMult                       0      0.00%     28.99% # Class of executed instruction
system.cpu.op_class::SimdMultAcc                    0      0.00%     28.99% # Class of executed instruction
system.cpu.op_class::SimdShift                      0      0.00%     28.99% # Class of executed instruction
system.cpu.op_class::SimdShiftAcc                   0      0.00%     28.99% # Class of executed instruction
system.cpu.op_class::SimdDiv                        0      0.00%     28.99% # Class of executed instruction
system.cpu.op_class::SimdSqrt                       0      0.00%     28.99% # Class of executed instruction
system.cpu.op_class::SimdFloatAdd                   0      0.00%     28.99% # Class of executed instruction
system.cpu.op_class::SimdFloatAlu                   0      0.00%     28.99% # Class of executed instruction
system.cpu.op_class::SimdFloatCmp                   0      0.00%     28.99% # Class of executed instruction
system.cpu.op_class::SimdFloatCvt                   0      0.00%     28.99% # Class of executed instruction
system.cpu.op_class::SimdFloatDiv                   0      0.00%     28.99% # Class of executed instruction
system.cpu.op_class::SimdFloatMisc                  0      0.00%     28.99% # Class of executed instruction
system.cpu.op_class::SimdFloatMult                  0      0.00%     28.99% # Class of executed instruction
system.cpu.op_class::SimdFloatMultAcc               0      0.00%     28.99% # Class of executed instruction
system.cpu.op_class::SimdFloatSqrt                  0      0.00%     28.99% # Class of executed instruction
system.cpu.op_class::SimdReduceAdd                  0      0.00%     28.99% # Class of executed instruction
system.cpu.op_class::SimdReduceAlu                  0      0.00%     28.99% # Class of executed instruction
system.cpu.op_class::SimdReduceCmp                  0      0.00%     28.99% # Class of executed instruction
system.cpu.op_class::SimdFloatReduceAdd             0      0.00%     28.99% # Class of executed instruction
system.cpu.op_class::SimdFloatReduceCmp             0      0.00%     28.99% # Class of executed instruction
system.cpu.op_class::SimdAes                        0      0.00%     28.99% # Class of executed instruction
system.cpu.op_class::SimdAesMix                     0      0.00%     28.99% # Class of executed instruction
system.cpu.op_class::SimdSha1Hash                   0      0.00%     28.99% # Class of executed instruction
system.cpu.op_class::SimdSha1Hash2                  0      0.00%     28.99% # Class of executed instruction
system.cpu.op_class::SimdSha256Hash                 0      0.00%     28.99% # Class of executed instruction
system.cpu.op_class::SimdSha256Hash2                0      0.00%     28.99% # Class of executed instruction
system.cpu.op_class::SimdShaSigma2                  0      0.00%     28.99% # Class of executed instruction
system.cpu.op_class::SimdShaSigma3                  0      0.00%     28.99% # Class of executed instruction
system.cpu.op_class::SimdPredAlu                    0      0.00%     28.99% # Class of executed instruction
system.cpu.op_class::MemRead                   141122     54.95%     83.94% # Class of executed instruction
system.cpu.op_class::MemWrite                   41261     16.06%    100.00% # Class of executed instruction
system.cpu.op_class::FloatMemRead                   0      0.00%    100.00% # Class of executed instruction
system.cpu.op_class::FloatMemWrite                  0      0.00%    100.00% # Class of executed instruction
system.cpu.op_class::IprAccess                      0      0.00%    100.00% # Class of executed instruction
system.cpu.op_class::InstPrefetch                   0      0.00%    100.00% # Class of executed instruction
system.cpu.op_class::total                     256840                       # Class of executed instruction
system.cpu.workload.numSyscalls                    15                       # Number of system calls
system.membus.snoop_filter.hit_multi_requests           11                       # Number of requests hitting in the snoop filter with multiple (>1) holders of the requested data.
system.membus.snoop_filter.hit_multi_snoops            0                       # Number of snoops hitting in the snoop filter with multiple (>1) holders of the requested data.
system.membus.snoop_filter.hit_single_requests           63                       # Number of requests hitting in the snoop filter with a single holder of the requested data.
system.membus.snoop_filter.hit_single_snoops            0                       # Number of snoops hitting in the snoop filter with a single holder of the requested data.
system.membus.snoop_filter.tot_requests          1031                       # Total number of requests made to the snoop filter.
system.membus.snoop_filter.tot_snoops               0                       # Total number of snoops made to the snoop filter.
system.membus.pwrStateResidencyTicks::UNDEFINED    532405000                       # Cumulative time (in ticks) in various power states
system.membus.trans_dist::ReadResp                309                       # Transaction distribution
system.membus.trans_dist::WritebackDirty            9                       # Transaction distribution
system.membus.trans_dist::WritebackClean           32                       # Transaction distribution
system.membus.trans_dist::CleanEvict               16                       # Transaction distribution
system.membus.trans_dist::ReadExReq               665                       # Transaction distribution
system.membus.trans_dist::ReadExResp              665                       # Transaction distribution
system.membus.trans_dist::ReadCleanReq            232                       # Transaction distribution
system.membus.trans_dist::ReadSharedReq            77                       # Transaction distribution
system.membus.pkt_count_system.cpu.icache.mem_side::system.mem_ctrls.port          496                       # Packet count per connected master and slave (bytes)
system.membus.pkt_count_system.cpu.dcache.mem_side::system.mem_ctrls.port         1509                       # Packet count per connected master and slave (bytes)
system.membus.pkt_count::total                   2005                       # Packet count per connected master and slave (bytes)
system.membus.pkt_size_system.cpu.icache.mem_side::system.mem_ctrls.port        16896                       # Cumulative packet size per connected master and slave (bytes)
system.membus.pkt_size_system.cpu.dcache.mem_side::system.mem_ctrls.port        48064                       # Cumulative packet size per connected master and slave (bytes)
system.membus.pkt_size::total                   64960                       # Cumulative packet size per connected master and slave (bytes)
system.membus.snoops                                0                       # Total snoops (count)
system.membus.snoopTraffic                          0                       # Total snoop traffic (bytes)
system.membus.snoop_fanout::samples               974                       # Request fanout histogram
system.membus.snoop_fanout::mean             0.017454                       # Request fanout histogram
system.membus.snoop_fanout::stdev            0.131022                       # Request fanout histogram
system.membus.snoop_fanout::underflows              0      0.00%      0.00% # Request fanout histogram
system.membus.snoop_fanout::0                     957     98.25%     98.25% # Request fanout histogram
system.membus.snoop_fanout::1                      17      1.75%    100.00% # Request fanout histogram
system.membus.snoop_fanout::2                       0      0.00%    100.00% # Request fanout histogram
system.membus.snoop_fanout::overflows               0      0.00%    100.00% # Request fanout histogram
system.membus.snoop_fanout::min_value               0                       # Request fanout histogram
system.membus.snoop_fanout::max_value               1                       # Request fanout histogram
system.membus.snoop_fanout::total                 974                       # Request fanout histogram
system.membus.reqLayer0.occupancy             1199000                       # Layer occupancy (ticks)
system.membus.reqLayer0.utilization               0.2                       # Layer utilization (%)
system.membus.respLayer1.occupancy            1234250                       # Layer occupancy (ticks)
system.membus.respLayer1.utilization              0.2                       # Layer utilization (%)
system.membus.respLayer2.occupancy            3920000                       # Layer occupancy (ticks)
system.membus.respLayer2.utilization              0.7                       # Layer utilization (%)
system.voltage_domain.voltage                       1                       # Voltage in Volts
system.clk_domain.clock                          1000                       # Clock period in ticks
system.cpu_voltage_domain.voltage                   1                       # Voltage in Volts
system.mem_ctrls.pwrStateResidencyTicks::UNDEFINED    532405000                       # Cumulative time (in ticks) in various power states
system.mem_ctrls.bytes_read::.cpu.inst          14848                       # Number of bytes read from this memory
system.mem_ctrls.bytes_read::.cpu.data          47488                       # Number of bytes read from this memory
system.mem_ctrls.bytes_read::total              62336                       # Number of bytes read from this memory
system.mem_ctrls.bytes_inst_read::.cpu.inst        14848                       # Number of instructions bytes read from this memory
system.mem_ctrls.bytes_inst_read::total         14848                       # Number of instructions bytes read from this memory
system.mem_ctrls.bytes_written::.writebacks          576                       # Number of bytes written to this memory
system.mem_ctrls.bytes_written::total             576                       # Number of bytes written to this memory
system.mem_ctrls.num_reads::.cpu.inst             232                       # Number of read requests responded to by this memory
system.mem_ctrls.num_reads::.cpu.data             742                       # Number of read requests responded to by this memory
system.mem_ctrls.num_reads::total                 974                       # Number of read requests responded to by this memory
system.mem_ctrls.num_writes::.writebacks            9                       # Number of write requests responded to by this memory
system.mem_ctrls.num_writes::total                  9                       # Number of write requests responded to by this memory
system.mem_ctrls.bw_read::.cpu.inst          27888543                       # Total read bandwidth from this memory (bytes/s)
system.mem_ctrls.bw_read::.cpu.data          89195255                       # Total read bandwidth from this memory (bytes/s)
system.mem_ctrls.bw_read::total             117083799                       # Total read bandwidth from this memory (bytes/s)
system.mem_ctrls.bw_inst_read::.cpu.inst     27888543                       # Instruction read bandwidth from this memory (bytes/s)
system.mem_ctrls.bw_inst_read::total         27888543                       # Instruction read bandwidth from this memory (bytes/s)
system.mem_ctrls.bw_write::.writebacks        1081883                       # Write bandwidth from this memory (bytes/s)
system.mem_ctrls.bw_write::total              1081883                       # Write bandwidth from this memory (bytes/s)
system.mem_ctrls.bw_total::.writebacks        1081883                       # Total bandwidth to/from this memory (bytes/s)
system.mem_ctrls.bw_total::.cpu.inst         27888543                       # Total bandwidth to/from this memory (bytes/s)
system.mem_ctrls.bw_total::.cpu.data         89195255                       # Total bandwidth to/from this memory (bytes/s)
system.mem_ctrls.bw_total::total            118165682                       # Total bandwidth to/from this memory (bytes/s)
system.mem_ctrls.avgPriority_.writebacks::samples        37.00                       # Average QoS priority value for accepted requests
system.mem_ctrls.avgPriority_.cpu.inst::samples       227.00                       # Average QoS priority value for accepted requests
system.mem_ctrls.avgPriority_.cpu.data::samples       740.00                       # Average QoS priority value for accepted requests
system.mem_ctrls.priorityMinLatency      0.000000018750                       # per QoS priority minimum request to response latency (s)
system.mem_ctrls.priorityMaxLatency      0.001048173750                       # per QoS priority maximum request to response latency (s)
system.mem_ctrls.numReadWriteTurnArounds            1                       # Number of turnarounds from READ to WRITE
system.mem_ctrls.numWriteReadTurnArounds            1                       # Number of turnarounds from WRITE to READ
system.mem_ctrls.numStayReadState                2107                       # Number of times bus staying in READ state
system.mem_ctrls.numStayWriteState                 15                       # Number of times bus staying in WRITE state
system.mem_ctrls.readReqs                         974                       # Number of read requests accepted
system.mem_ctrls.writeReqs                         38                       # Number of write requests accepted
system.mem_ctrls.readBursts                       974                       # Number of DRAM read bursts, including those serviced by the write queue
system.mem_ctrls.writeBursts                       38                       # Number of DRAM write bursts, including those merged in the write queue
system.mem_ctrls.servicedByWrQ                      7                       # Number of DRAM read bursts serviced by the write queue
system.mem_ctrls.mergedWrBursts                     1                       # Number of DRAM write bursts merged with an existing one
system.mem_ctrls.neitherReadNorWriteReqs            0                       # Number of requests that are neither read nor write
system.mem_ctrls.perBankRdBursts::0               100                       # Per bank write bursts
system.mem_ctrls.perBankRdBursts::1                74                       # Per bank write bursts
system.mem_ctrls.perBankRdBursts::2                27                       # Per bank write bursts
system.mem_ctrls.perBankRdBursts::3                92                       # Per bank write bursts
system.mem_ctrls.perBankRdBursts::4               155                       # Per bank write bursts
system.mem_ctrls.perBankRdBursts::5               169                       # Per bank write bursts
system.mem_ctrls.perBankRdBursts::6               146                       # Per bank write bursts
system.mem_ctrls.perBankRdBursts::7                72                       # Per bank write bursts
system.mem_ctrls.perBankRdBursts::8                28                       # Per bank write bursts
system.mem_ctrls.perBankRdBursts::9                33                       # Per bank write bursts
system.mem_ctrls.perBankRdBursts::10                0                       # Per bank write bursts
system.mem_ctrls.perBankRdBursts::11                2                       # Per bank write bursts
system.mem_ctrls.perBankRdBursts::12                2                       # Per bank write bursts
system.mem_ctrls.perBankRdBursts::13               10                       # Per bank write bursts
system.mem_ctrls.perBankRdBursts::14               44                       # Per bank write bursts
system.mem_ctrls.perBankRdBursts::15               13                       # Per bank write bursts
system.mem_ctrls.perBankWrBursts::0                 5                       # Per bank write bursts
system.mem_ctrls.perBankWrBursts::1                 0                       # Per bank write bursts
system.mem_ctrls.perBankWrBursts::2                 2                       # Per bank write bursts
system.mem_ctrls.perBankWrBursts::3                 0                       # Per bank write bursts
system.mem_ctrls.perBankWrBursts::4                 4                       # Per bank write bursts
system.mem_ctrls.perBankWrBursts::5                 1                       # Per bank write bursts
system.mem_ctrls.perBankWrBursts::6                 1                       # Per bank write bursts
system.mem_ctrls.perBankWrBursts::7                 1                       # Per bank write bursts
system.mem_ctrls.perBankWrBursts::8                 2                       # Per bank write bursts
system.mem_ctrls.perBankWrBursts::9                 0                       # Per bank write bursts
system.mem_ctrls.perBankWrBursts::10                0                       # Per bank write bursts
system.mem_ctrls.perBankWrBursts::11                0                       # Per bank write bursts
system.mem_ctrls.perBankWrBursts::12                0                       # Per bank write bursts
system.mem_ctrls.perBankWrBursts::13                0                       # Per bank write bursts
system.mem_ctrls.perBankWrBursts::14                0                       # Per bank write bursts
system.mem_ctrls.perBankWrBursts::15                0                       # Per bank write bursts
system.mem_ctrls.avgRdQLen                       1.00                       # Average read queue length when enqueuing
system.mem_ctrls.avgWrQLen                      19.71                       # Average write queue length when enqueuing
system.mem_ctrls.totQLat                      4419000                       # Total ticks spent queuing
system.mem_ctrls.totBusLat                    4835000                       # Total ticks spent in databus transfers
system.mem_ctrls.totMemAccLat                22550250                       # Total ticks spent from burst creation until serviced by the DRAM
system.mem_ctrls.avgQLat                      4569.80                       # Average queueing delay per DRAM burst
system.mem_ctrls.avgBusLat                    5000.00                       # Average bus latency per DRAM burst
system.mem_ctrls.avgMemAccLat                23319.80                       # Average memory access latency per DRAM burst
system.mem_ctrls.numRdRetry                         0                       # Number of times read queue was full causing retry
system.mem_ctrls.numWrRetry                         0                       # Number of times write queue was full causing retry
system.mem_ctrls.readRowHits                      823                       # Number of row buffer hits during reads
system.mem_ctrls.writeRowHits                      11                       # Number of row buffer hits during writes
system.mem_ctrls.readRowHitRate                 85.11                       # Row buffer hit rate for reads
system.mem_ctrls.writeRowHitRate                29.73                       # Row buffer hit rate for writes
system.mem_ctrls.readPktSize::0                     0                       # Read request sizes (log2)
system.mem_ctrls.readPktSize::1                     0                       # Read request sizes (log2)
system.mem_ctrls.readPktSize::2                     0                       # Read request sizes (log2)
system.mem_ctrls.readPktSize::3                     0                       # Read request sizes (log2)
system.mem_ctrls.readPktSize::4                     0                       # Read request sizes (log2)
system.mem_ctrls.readPktSize::5                     0                       # Read request sizes (log2)
system.mem_ctrls.readPktSize::6                   974                       # Read request sizes (log2)
system.mem_ctrls.writePktSize::0                    0                       # Write request sizes (log2)
system.mem_ctrls.writePktSize::1                    0                       # Write request sizes (log2)
system.mem_ctrls.writePktSize::2                    0                       # Write request sizes (log2)
system.mem_ctrls.writePktSize::3                    0                       # Write request sizes (log2)
system.mem_ctrls.writePktSize::4                    0                       # Write request sizes (log2)
system.mem_ctrls.writePktSize::5                    0                       # Write request sizes (log2)
system.mem_ctrls.writePktSize::6                   38                       # Write request sizes (log2)
system.mem_ctrls.rdQLenPdf::0                     966                       # What read queue length does an incoming req see
system.mem_ctrls.rdQLenPdf::1                       1                       # What read queue length does an incoming req see
system.mem_ctrls.rdQLenPdf::2                       0                       # What read queue length does an incoming req see
system.mem_ctrls.rdQLenPdf::3                       0                       # What read queue length does an incoming req see
system.mem_ctrls.rdQLenPdf::4                       0                       # What read queue length does an incoming req see
system.mem_ctrls.rdQLenPdf::5                       0                       # What read queue length does an incoming req see
system.mem_ctrls.rdQLenPdf::6                       0                       # What read queue length does an incoming req see
system.mem_ctrls.rdQLenPdf::7                       0                       # What read queue length does an incoming req see
system.mem_ctrls.rdQLenPdf::8                       0                       # What read queue length does an incoming req see
system.mem_ctrls.rdQLenPdf::9                       0                       # What read queue length does an incoming req see
system.mem_ctrls.rdQLenPdf::10                      0                       # What read queue length does an incoming req see
system.mem_ctrls.rdQLenPdf::11                      0                       # What read queue length does an incoming req see
system.mem_ctrls.rdQLenPdf::12                      0                       # What read queue length does an incoming req see
system.mem_ctrls.rdQLenPdf::13                      0                       # What read queue length does an incoming req see
system.mem_ctrls.rdQLenPdf::14                      0                       # What read queue length does an incoming req see
system.mem_ctrls.rdQLenPdf::15                      0                       # What read queue length does an incoming req see
system.mem_ctrls.rdQLenPdf::16                      0                       # What read queue length does an incoming req see
system.mem_ctrls.rdQLenPdf::17                      0                       # What read queue length does an incoming req see
system.mem_ctrls.rdQLenPdf::18                      0                       # What read queue length does an incoming req see
system.mem_ctrls.rdQLenPdf::19                      0                       # What read queue length does an incoming req see
system.mem_ctrls.rdQLenPdf::20                      0                       # What read queue length does an incoming req see
system.mem_ctrls.rdQLenPdf::21                      0                       # What read queue length does an incoming req see
system.mem_ctrls.rdQLenPdf::22                      0                       # What read queue length does an incoming req see
system.mem_ctrls.rdQLenPdf::23                      0                       # What read queue length does an incoming req see
system.mem_ctrls.rdQLenPdf::24                      0                       # What read queue length does an incoming req see
system.mem_ctrls.rdQLenPdf::25                      0                       # What read queue length does an incoming req see
system.mem_ctrls.rdQLenPdf::26                      0                       # What read queue length does an incoming req see
system.mem_ctrls.rdQLenPdf::27                      0                       # What read queue length does an incoming req see
system.mem_ctrls.rdQLenPdf::28                      0                       # What read queue length does an incoming req see
system.mem_ctrls.rdQLenPdf::29                      0                       # What read queue length does an incoming req see
system.mem_ctrls.rdQLenPdf::30                      0                       # What read queue length does an incoming req see
system.mem_ctrls.rdQLenPdf::31                      0                       # What read queue length does an incoming req see
system.mem_ctrls.wrQLenPdf::0                       1                       # What write queue length does an incoming req see
system.mem_ctrls.wrQLenPdf::1                       1                       # What write queue length does an incoming req see
system.mem_ctrls.wrQLenPdf::2                       1                       # What write queue length does an incoming req see
system.mem_ctrls.wrQLenPdf::3                       1                       # What write queue length does an incoming req see
system.mem_ctrls.wrQLenPdf::4                       1                       # What write queue length does an incoming req see
system.mem_ctrls.wrQLenPdf::5                       1                       # What write queue length does an incoming req see
system.mem_ctrls.wrQLenPdf::6                       1                       # What write queue length does an incoming req see
system.mem_ctrls.wrQLenPdf::7                       1                       # What write queue length does an incoming req see
system.mem_ctrls.wrQLenPdf::8                       1                       # What write queue length does an incoming req see
system.mem_ctrls.wrQLenPdf::9                       1                       # What write queue length does an incoming req see
system.mem_ctrls.wrQLenPdf::10                      1                       # What write queue length does an incoming req see
system.mem_ctrls.wrQLenPdf::11                      1                       # What write queue length does an incoming req see
system.mem_ctrls.wrQLenPdf::12                      1                       # What write queue length does an incoming req see
system.mem_ctrls.wrQLenPdf::13                      1                       # What write queue length does an incoming req see
system.mem_ctrls.wrQLenPdf::14                      1                       # What write queue length does an incoming req see
system.mem_ctrls.wrQLenPdf::15                      1                       # What write queue length does an incoming req see
system.mem_ctrls.wrQLenPdf::16                      1                       # What write queue length does an incoming req see
system.mem_ctrls.wrQLenPdf::17                      2                       # What write queue length does an incoming req see
system.mem_ctrls.wrQLenPdf::18                      2                       # What write queue length does an incoming req see
system.mem_ctrls.wrQLenPdf::19                      2                       # What write queue length does an incoming req see
system.mem_ctrls.wrQLenPdf::20                      2                       # What write queue length does an incoming req see
system.mem_ctrls.wrQLenPdf::21                      1                       # What write queue length does an incoming req see
system.mem_ctrls.wrQLenPdf::22                      1                       # What write queue length does an incoming req see
system.mem_ctrls.wrQLenPdf::23                      1                       # What write queue length does an incoming req see
system.mem_ctrls.wrQLenPdf::24                      1                       # What write queue length does an incoming req see
system.mem_ctrls.wrQLenPdf::25                      1                       # What write queue length does an incoming req see
system.mem_ctrls.wrQLenPdf::26                      1                       # What write queue length does an incoming req see
system.mem_ctrls.wrQLenPdf::27                      1                       # What write queue length does an incoming req see
system.mem_ctrls.wrQLenPdf::28                      1                       # What write queue length does an incoming req see
system.mem_ctrls.wrQLenPdf::29                      1                       # What write queue length does an incoming req see
system.mem_ctrls.wrQLenPdf::30                      1                       # What write queue length does an incoming req see
system.mem_ctrls.wrQLenPdf::31                      1                       # What write queue length does an incoming req see
system.mem_ctrls.wrQLenPdf::32                      1                       # What write queue length does an incoming req see
system.mem_ctrls.wrQLenPdf::33                      0                       # What write queue length does an incoming req see
system.mem_ctrls.wrQLenPdf::34                      0                       # What write queue length does an incoming req see
system.mem_ctrls.wrQLenPdf::35                      0                       # What write queue length does an incoming req see
system.mem_ctrls.wrQLenPdf::36                      0                       # What write queue length does an incoming req see
system.mem_ctrls.wrQLenPdf::37                      0                       # What write queue length does an incoming req see
system.mem_ctrls.wrQLenPdf::38                      0                       # What write queue length does an incoming req see
system.mem_ctrls.wrQLenPdf::39                      0                       # What write queue length does an incoming req see
system.mem_ctrls.wrQLenPdf::40                      0                       # What write queue length does an incoming req see
system.mem_ctrls.wrQLenPdf::41                      0                       # What write queue length does an incoming req see
system.mem_ctrls.wrQLenPdf::42                      0                       # What write queue length does an incoming req see
system.mem_ctrls.wrQLenPdf::43                      0                       # What write queue length does an incoming req see
system.mem_ctrls.wrQLenPdf::44                      0                       # What write queue length does an incoming req see
system.mem_ctrls.wrQLenPdf::45                      0                       # What write queue length does an incoming req see
system.mem_ctrls.wrQLenPdf::46                      0                       # What write queue length does an incoming req see
system.mem_ctrls.wrQLenPdf::47                      0                       # What write queue length does an incoming req see
system.mem_ctrls.wrQLenPdf::48                      0                       # What write queue length does an incoming req see
system.mem_ctrls.wrQLenPdf::49                      0                       # What write queue length does an incoming req see
system.mem_ctrls.wrQLenPdf::50                      0                       # What write queue length does an incoming req see
system.mem_ctrls.wrQLenPdf::51                      0                       # What write queue length does an incoming req see
system.mem_ctrls.wrQLenPdf::52                      0                       # What write queue length does an incoming req see
system.mem_ctrls.wrQLenPdf::53                      0                       # What write queue length does an incoming req see
system.mem_ctrls.wrQLenPdf::54                      0                       # What write queue length does an incoming req see
system.mem_ctrls.wrQLenPdf::55                      0                       # What write queue length does an incoming req see
system.mem_ctrls.wrQLenPdf::56                      0                       # What write queue length does an incoming req see
system.mem_ctrls.wrQLenPdf::57                      0                       # What write queue length does an incoming req see
system.mem_ctrls.wrQLenPdf::58                      0                       # What write queue length does an incoming req see
system.mem_ctrls.wrQLenPdf::59                      0                       # What write queue length does an incoming req see
system.mem_ctrls.wrQLenPdf::60                      0                       # What write queue length does an incoming req see
system.mem_ctrls.wrQLenPdf::61                      0                       # What write queue length does an incoming req see
system.mem_ctrls.wrQLenPdf::62                      0                       # What write queue length does an incoming req see
system.mem_ctrls.wrQLenPdf::63                      0                       # What write queue length does an incoming req see
system.mem_ctrls.bytesPerActivate::samples          140                       # Bytes accessed per row activation
system.mem_ctrls.bytesPerActivate::mean    437.485714                       # Bytes accessed per row activation
system.mem_ctrls.bytesPerActivate::gmean   298.280329                       # Bytes accessed per row activation
system.mem_ctrls.bytesPerActivate::stdev   356.759304                       # Bytes accessed per row activation
system.mem_ctrls.bytesPerActivate::0-127           18     12.86%     12.86% # Bytes accessed per row activation
system.mem_ctrls.bytesPerActivate::128-255           35     25.00%     37.86% # Bytes accessed per row activation
system.mem_ctrls.bytesPerActivate::256-383           34     24.29%     62.14% # Bytes accessed per row activation
system.mem_ctrls.bytesPerActivate::384-511            6      4.29%     66.43% # Bytes accessed per row activation
system.mem_ctrls.bytesPerActivate::512-639            7      5.00%     71.43% # Bytes accessed per row activation
system.mem_ctrls.bytesPerActivate::640-767            4      2.86%     74.29% # Bytes accessed per row activation
system.mem_ctrls.bytesPerActivate::768-895            5      3.57%     77.86% # Bytes accessed per row activation
system.mem_ctrls.bytesPerActivate::896-1023            1      0.71%     78.57% # Bytes accessed per row activation
system.mem_ctrls.bytesPerActivate::1024-1151           30     21.43%    100.00% # Bytes accessed per row activation
system.mem_ctrls.bytesPerActivate::total          140                       # Bytes accessed per row activation
system.mem_ctrls.rdPerTurnAround::samples            1                       # Reads before turning the bus around for writes
system.mem_ctrls.rdPerTurnAround::mean            953                       # Reads before turning the bus around for writes
system.mem_ctrls.rdPerTurnAround::gmean    953.000000                       # Reads before turning the bus around for writes
system.mem_ctrls.rdPerTurnAround::stdev           nan                       # Reads before turning the bus around for writes
system.mem_ctrls.rdPerTurnAround::928-959            1    100.00%    100.00% # Reads before turning the bus around for writes
system.mem_ctrls.rdPerTurnAround::total             1                       # Reads before turning the bus around for writes
system.mem_ctrls.wrPerTurnAround::samples            1                       # Writes before turning the bus around for reads
system.mem_ctrls.wrPerTurnAround::mean             16                       # Writes before turning the bus around for reads
system.mem_ctrls.wrPerTurnAround::gmean     16.000000                       # Writes before turning the bus around for reads
system.mem_ctrls.wrPerTurnAround::stdev           nan                       # Writes before turning the bus around for reads
system.mem_ctrls.wrPerTurnAround::16                1    100.00%    100.00% # Writes before turning the bus around for reads
system.mem_ctrls.wrPerTurnAround::total             1                       # Writes before turning the bus around for reads
system.mem_ctrls.bytesReadDRAM                  61888                       # Total number of bytes read from DRAM
system.mem_ctrls.bytesReadWrQ                     448                       # Total number of bytes read from write queue
system.mem_ctrls.bytesWritten                    1024                       # Total number of bytes written to DRAM
system.mem_ctrls.bytesReadSys                   62336                       # Total read bytes from the system interface side
system.mem_ctrls.bytesWrittenSys                 2432                       # Total written bytes from the system interface side
system.mem_ctrls.avgRdBW                       116.24                       # Average DRAM read bandwidth in MiByte/s
system.mem_ctrls.avgWrBW                         1.92                       # Average achieved write bandwidth in MiByte/s
system.mem_ctrls.avgRdBWSys                    117.08                       # Average system read bandwidth in MiByte/s
system.mem_ctrls.avgWrBWSys                      4.57                       # Average system write bandwidth in MiByte/s
system.mem_ctrls.peakBW                      12800.00                       # Theoretical peak bandwidth in MiByte/s
system.mem_ctrls.busUtil                         0.92                       # Data bus utilization in percentage
system.mem_ctrls.busUtilRead                     0.91                       # Data bus utilization in percentage for reads
system.mem_ctrls.busUtilWrite                    0.02                       # Data bus utilization in percentage for writes
system.mem_ctrls.totGap                     532388000                       # Total gap between requests
system.mem_ctrls.avgGap                     526075.10                       # Average gap between requests
system.mem_ctrls.masterReadBytes::.cpu.inst        14528                       # Per-master bytes read from memory
system.mem_ctrls.masterReadBytes::.cpu.data        47360                       # Per-master bytes read from memory
system.mem_ctrls.masterWriteBytes::.writebacks         1024                       # Per-master bytes write to memory
system.mem_ctrls.masterReadRate::.cpu.inst 27287497.299987789243                       # Per-master bytes read from memory rate (Bytes/sec)
system.mem_ctrls.masterReadRate::.cpu.data 88954837.013176053762                       # Per-master bytes read from memory rate (Bytes/sec)
system.mem_ctrls.masterWriteRate::.writebacks 1923347.827311914880                       # Per-master bytes write to memory rate (Bytes/sec)
system.mem_ctrls.masterReadAccesses::.cpu.inst          232                       # Per-master read serviced memory accesses
system.mem_ctrls.masterReadAccesses::.cpu.data          742                       # Per-master read serviced memory accesses
system.mem_ctrls.masterWriteAccesses::.writebacks           38                       # Per-master write serviced memory accesses
system.mem_ctrls.masterReadTotalLat::.cpu.inst      5734750                       # Per-master read total memory access latency
system.mem_ctrls.masterReadTotalLat::.cpu.data     16815500                       # Per-master read total memory access latency
system.mem_ctrls.masterWriteTotalLat::.writebacks   4622172000                       # Per-master write total memory access latency
system.mem_ctrls.masterReadAvgLat::.cpu.inst     24718.75                       # Per-master read average memory access latency
system.mem_ctrls.masterReadAvgLat::.cpu.data     22662.40                       # Per-master read average memory access latency
system.mem_ctrls.masterWriteAvgLat::.writebacks 121636105.26                       # Per-master write average memory access latency
system.mem_ctrls.pageHitRate                    83.07                       # Row buffer hit rate, read and write combined
system.mem_ctrls.rank1.actEnergy               185640                       # Energy for activate commands per rank (pJ)
system.mem_ctrls.rank1.preEnergy                83490                       # Energy for precharge commands per rank (pJ)
system.mem_ctrls.rank1.readEnergy              942480                       # Energy for read commands per rank (pJ)
system.mem_ctrls.rank1.writeEnergy              10440                       # Energy for write commands per rank (pJ)
system.mem_ctrls.rank1.refreshEnergy     41795520.000000                       # Energy for refresh commands per rank (pJ)
system.mem_ctrls.rank1.actBackEnergy         22007700                       # Energy for active background per rank (pJ)
system.mem_ctrls.rank1.preBackEnergy        185910720                       # Energy for precharge background per rank (pJ)
system.mem_ctrls.rank1.actPowerDownEnergy            0                       # Energy for active power-down per rank (pJ)
system.mem_ctrls.rank1.prePowerDownEnergy            0                       # Energy for precharge power-down per rank (pJ)
system.mem_ctrls.rank1.selfRefreshEnergy            0                       # Energy for self refresh per rank (pJ)
system.mem_ctrls.rank1.totalEnergy          250935990                       # Total energy per rank (pJ)
system.mem_ctrls.rank1.averagePower        471.325382                       # Core power per rank (mW)
system.mem_ctrls.rank1.totalIdleTime                0                       # Total Idle time Per DRAM Rank
system.mem_ctrls.rank1.memoryStateTime::IDLE    483149500                       # Time in different power states
system.mem_ctrls.rank1.memoryStateTime::REF     17680000                       # Time in different power states
system.mem_ctrls.rank1.memoryStateTime::SREF            0                       # Time in different power states
system.mem_ctrls.rank1.memoryStateTime::PRE_PDN            0                       # Time in different power states
system.mem_ctrls.rank1.memoryStateTime::ACT     31575500                       # Time in different power states
system.mem_ctrls.rank1.memoryStateTime::ACT_PDN            0                       # Time in different power states
system.mem_ctrls.rank0.actEnergy               878220                       # Energy for activate commands per rank (pJ)
system.mem_ctrls.rank0.preEnergy               447810                       # Energy for precharge commands per rank (pJ)
system.mem_ctrls.rank0.readEnergy             5961900                       # Energy for read commands per rank (pJ)
system.mem_ctrls.rank0.writeEnergy              73080                       # Energy for write commands per rank (pJ)
system.mem_ctrls.rank0.refreshEnergy     41795520.000000                       # Energy for refresh commands per rank (pJ)
system.mem_ctrls.rank0.actBackEnergy        117657120                       # Energy for active background per rank (pJ)
system.mem_ctrls.rank0.preBackEnergy        105363840                       # Energy for precharge background per rank (pJ)
system.mem_ctrls.rank0.actPowerDownEnergy            0                       # Energy for active power-down per rank (pJ)
system.mem_ctrls.rank0.prePowerDownEnergy            0                       # Energy for precharge power-down per rank (pJ)
system.mem_ctrls.rank0.selfRefreshEnergy            0                       # Energy for self refresh per rank (pJ)
system.mem_ctrls.rank0.totalEnergy          272177490                       # Total energy per rank (pJ)
system.mem_ctrls.rank0.averagePower        511.222641                       # Core power per rank (mW)
system.mem_ctrls.rank0.totalIdleTime                0                       # Total Idle time Per DRAM Rank
system.mem_ctrls.rank0.memoryStateTime::IDLE    272588250                       # Time in different power states
system.mem_ctrls.rank0.memoryStateTime::REF     17680000                       # Time in different power states
system.mem_ctrls.rank0.memoryStateTime::SREF            0                       # Time in different power states
system.mem_ctrls.rank0.memoryStateTime::PRE_PDN            0                       # Time in different power states
system.mem_ctrls.rank0.memoryStateTime::ACT    242136750                       # Time in different power states
system.mem_ctrls.rank0.memoryStateTime::ACT_PDN            0                       # Time in different power states
system.cpu_clk_domain.clock                       500                       # Clock period in ticks
system.cpu.numPwrStateTransitions                   1                       # Number of power state transitions
system.cpu.pwrStateResidencyTicks::ON       532405000                       # Cumulative time (in ticks) in various power states
system.cpu.icache.pwrStateResidencyTicks::UNDEFINED    532405000                       # Cumulative time (in ticks) in various power states
system.cpu.icache.demand_hits::.cpu.inst       296413                       # number of demand (read+write) hits
system.cpu.icache.demand_hits::total           296413                       # number of demand (read+write) hits
system.cpu.icache.overall_hits::.cpu.inst       296413                       # number of overall hits
system.cpu.icache.overall_hits::total          296413                       # number of overall hits
system.cpu.icache.demand_misses::.cpu.inst          232                       # number of demand (read+write) misses
system.cpu.icache.demand_misses::total            232                       # number of demand (read+write) misses
system.cpu.icache.overall_misses::.cpu.inst          232                       # number of overall misses
system.cpu.icache.overall_misses::total           232                       # number of overall misses
system.cpu.icache.demand_miss_latency::.cpu.inst     13197000                       # number of demand (read+write) miss cycles
system.cpu.icache.demand_miss_latency::total     13197000                       # number of demand (read+write) miss cycles
system.cpu.icache.overall_miss_latency::.cpu.inst     13197000                       # number of overall miss cycles
system.cpu.icache.overall_miss_latency::total     13197000                       # number of overall miss cycles
system.cpu.icache.demand_accesses::.cpu.inst       296645                       # number of demand (read+write) accesses
system.cpu.icache.demand_accesses::total       296645                       # number of demand (read+write) accesses
system.cpu.icache.overall_accesses::.cpu.inst       296645                       # number of overall (read+write) accesses
system.cpu.icache.overall_accesses::total       296645                       # number of overall (read+write) accesses
system.cpu.icache.demand_miss_rate::.cpu.inst     0.000782                       # miss rate for demand accesses
system.cpu.icache.demand_miss_rate::total     0.000782                       # miss rate for demand accesses
system.cpu.icache.overall_miss_rate::.cpu.inst     0.000782                       # miss rate for overall accesses
system.cpu.icache.overall_miss_rate::total     0.000782                       # miss rate for overall accesses
system.cpu.icache.demand_avg_miss_latency::.cpu.inst 56883.620690                       # average overall miss latency
system.cpu.icache.demand_avg_miss_latency::total 56883.620690                       # average overall miss latency
system.cpu.icache.overall_avg_miss_latency::.cpu.inst 56883.620690                       # average overall miss latency
system.cpu.icache.overall_avg_miss_latency::total 56883.620690                       # average overall miss latency
system.cpu.icache.blocked_cycles::no_mshrs            0                       # number of cycles access was blocked
system.cpu.icache.blocked_cycles::no_targets            0                       # number of cycles access was blocked
system.cpu.icache.blocked::no_mshrs                 0                       # number of cycles access was blocked
system.cpu.icache.blocked::no_targets               0                       # number of cycles access was blocked
system.cpu.icache.avg_blocked_cycles::no_mshrs          nan                       # average number of cycles each access was blocked
system.cpu.icache.avg_blocked_cycles::no_targets          nan                       # average number of cycles each access was blocked
system.cpu.icache.writebacks::.writebacks           32                       # number of writebacks
system.cpu.icache.writebacks::total                32                       # number of writebacks
system.cpu.icache.demand_mshr_misses::.cpu.inst          232                       # number of demand (read+write) MSHR misses
system.cpu.icache.demand_mshr_misses::total          232                       # number of demand (read+write) MSHR misses
system.cpu.icache.overall_mshr_misses::.cpu.inst          232                       # number of overall MSHR misses
system.cpu.icache.overall_mshr_misses::total          232                       # number of overall MSHR misses
system.cpu.icache.demand_mshr_miss_latency::.cpu.inst     12965000                       # number of demand (read+write) MSHR miss cycles
system.cpu.icache.demand_mshr_miss_latency::total     12965000                       # number of demand (read+write) MSHR miss cycles
system.cpu.icache.overall_mshr_miss_latency::.cpu.inst     12965000                       # number of overall MSHR miss cycles
system.cpu.icache.overall_mshr_miss_latency::total     12965000                       # number of overall MSHR miss cycles
system.cpu.icache.demand_mshr_miss_rate::.cpu.inst     0.000782                       # mshr miss rate for demand accesses
system.cpu.icache.demand_mshr_miss_rate::total     0.000782                       # mshr miss rate for demand accesses
system.cpu.icache.overall_mshr_miss_rate::.cpu.inst     0.000782                       # mshr miss rate for overall accesses
system.cpu.icache.overall_mshr_miss_rate::total     0.000782                       # mshr miss rate for overall accesses
system.cpu.icache.demand_avg_mshr_miss_latency::.cpu.inst 55883.620690                       # average overall mshr miss latency
system.cpu.icache.demand_avg_mshr_miss_latency::total 55883.620690                       # average overall mshr miss latency
system.cpu.icache.overall_avg_mshr_miss_latency::.cpu.inst 55883.620690                       # average overall mshr miss latency
system.cpu.icache.overall_avg_mshr_miss_latency::total 55883.620690                       # average overall mshr miss latency
system.cpu.icache.replacements                     32                       # number of replacements
system.cpu.icache.ReadReq_hits::.cpu.inst       296413                       # number of ReadReq hits
system.cpu.icache.ReadReq_hits::total          296413                       # number of ReadReq hits
system.cpu.icache.ReadReq_misses::.cpu.inst          232                       # number of ReadReq misses
system.cpu.icache.ReadReq_misses::total           232                       # number of ReadReq misses
system.cpu.icache.ReadReq_miss_latency::.cpu.inst     13197000                       # number of ReadReq miss cycles
system.cpu.icache.ReadReq_miss_latency::total     13197000                       # number of ReadReq miss cycles
system.cpu.icache.ReadReq_accesses::.cpu.inst       296645                       # number of ReadReq accesses(hits+misses)
system.cpu.icache.ReadReq_accesses::total       296645                       # number of ReadReq accesses(hits+misses)
system.cpu.icache.ReadReq_miss_rate::.cpu.inst     0.000782                       # miss rate for ReadReq accesses
system.cpu.icache.ReadReq_miss_rate::total     0.000782                       # miss rate for ReadReq accesses
system.cpu.icache.ReadReq_avg_miss_latency::.cpu.inst 56883.620690                       # average ReadReq miss latency
system.cpu.icache.ReadReq_avg_miss_latency::total 56883.620690                       # average ReadReq miss latency
system.cpu.icache.ReadReq_mshr_misses::.cpu.inst          232                       # number of ReadReq MSHR misses
system.cpu.icache.ReadReq_mshr_misses::total          232                       # number of ReadReq MSHR misses
system.cpu.icache.ReadReq_mshr_miss_latency::.cpu.inst     12965000                       # number of ReadReq MSHR miss cycles
system.cpu.icache.ReadReq_mshr_miss_latency::total     12965000                       # number of ReadReq MSHR miss cycles
system.cpu.icache.ReadReq_mshr_miss_rate::.cpu.inst     0.000782                       # mshr miss rate for ReadReq accesses
system.cpu.icache.ReadReq_mshr_miss_rate::total     0.000782                       # mshr miss rate for ReadReq accesses
system.cpu.icache.ReadReq_avg_mshr_miss_latency::.cpu.inst 55883.620690                       # average ReadReq mshr miss latency
system.cpu.icache.ReadReq_avg_mshr_miss_latency::total 55883.620690                       # average ReadReq mshr miss latency
system.cpu.icache.tags.pwrStateResidencyTicks::UNDEFINED    532405000                       # Cumulative time (in ticks) in various power states
system.cpu.icache.tags.tagsinuse           181.749313                       # Cycle average of tags in use
system.cpu.icache.tags.total_refs              296645                       # Total number of references to valid blocks.
system.cpu.icache.tags.sampled_refs               232                       # Sample count of references to valid blocks.
system.cpu.icache.tags.avg_refs           1278.642241                       # Average number of references to valid blocks.
system.cpu.icache.tags.warmup_cycle             77000                       # Cycle when the warmup percentage was hit.
system.cpu.icache.tags.occ_blocks::.cpu.inst   181.749313                       # Average occupied blocks per requestor
system.cpu.icache.tags.occ_percent::.cpu.inst     0.354979                       # Average percentage of cache occupancy
system.cpu.icache.tags.occ_percent::total     0.354979                       # Average percentage of cache occupancy
system.cpu.icache.tags.occ_task_id_blocks::1024          200                       # Occupied blocks per task id
system.cpu.icache.tags.age_task_id_blocks_1024::0           23                       # Occupied blocks per task id
system.cpu.icache.tags.age_task_id_blocks_1024::2          177                       # Occupied blocks per task id
system.cpu.icache.tags.occ_task_id_percent::1024     0.390625                       # Percentage of cache occupancy per task id
system.cpu.icache.tags.tag_accesses            593522                       # Number of tag accesses
system.cpu.icache.tags.data_accesses           593522                       # Number of data accesses
system.cpu.dtb.walker.pwrStateResidencyTicks::UNDEFINED    532405000                       # Cumulative time (in ticks) in various power states
system.cpu.dtb.stage2_mmu.stage2_tlb.walker.pwrStateResidencyTicks::UNDEFINED    532405000                       # Cumulative time (in ticks) in various power states
system.cpu.itb.walker.pwrStateResidencyTicks::UNDEFINED    532405000                       # Cumulative time (in ticks) in various power states
system.cpu.itb.stage2_mmu.stage2_tlb.walker.pwrStateResidencyTicks::UNDEFINED    532405000                       # Cumulative time (in ticks) in various power states
system.cpu.dcache.pwrStateResidencyTicks::UNDEFINED    532405000                       # Cumulative time (in ticks) in various power states
system.cpu.dcache.demand_hits::.cpu.data       181550                       # number of demand (read+write) hits
system.cpu.dcache.demand_hits::total           181550                       # number of demand (read+write) hits
system.cpu.dcache.overall_hits::.cpu.data       181570                       # number of overall hits
system.cpu.dcache.overall_hits::total          181570                       # number of overall hits
system.cpu.dcache.demand_misses::.cpu.data          735                       # number of demand (read+write) misses
system.cpu.dcache.demand_misses::total            735                       # number of demand (read+write) misses
system.cpu.dcache.overall_misses::.cpu.data          745                       # number of overall misses
system.cpu.dcache.overall_misses::total           745                       # number of overall misses
system.cpu.dcache.demand_miss_latency::.cpu.data     40345000                       # number of demand (read+write) miss cycles
system.cpu.dcache.demand_miss_latency::total     40345000                       # number of demand (read+write) miss cycles
system.cpu.dcache.overall_miss_latency::.cpu.data     40345000                       # number of overall miss cycles
system.cpu.dcache.overall_miss_latency::total     40345000                       # number of overall miss cycles
system.cpu.dcache.demand_accesses::.cpu.data       182285                       # number of demand (read+write) accesses
system.cpu.dcache.demand_accesses::total       182285                       # number of demand (read+write) accesses
system.cpu.dcache.overall_accesses::.cpu.data       182315                       # number of overall (read+write) accesses
system.cpu.dcache.overall_accesses::total       182315                       # number of overall (read+write) accesses
system.cpu.dcache.demand_miss_rate::.cpu.data     0.004032                       # miss rate for demand accesses
system.cpu.dcache.demand_miss_rate::total     0.004032                       # miss rate for demand accesses
system.cpu.dcache.overall_miss_rate::.cpu.data     0.004086                       # miss rate for overall accesses
system.cpu.dcache.overall_miss_rate::total     0.004086                       # miss rate for overall accesses
system.cpu.dcache.demand_avg_miss_latency::.cpu.data 54891.156463                       # average overall miss latency
system.cpu.dcache.demand_avg_miss_latency::total 54891.156463                       # average overall miss latency
system.cpu.dcache.overall_avg_miss_latency::.cpu.data 54154.362416                       # average overall miss latency
system.cpu.dcache.overall_avg_miss_latency::total 54154.362416                       # average overall miss latency
system.cpu.dcache.blocked_cycles::no_mshrs            0                       # number of cycles access was blocked
system.cpu.dcache.blocked_cycles::no_targets            0                       # number of cycles access was blocked
system.cpu.dcache.blocked::no_mshrs                 0                       # number of cycles access was blocked
system.cpu.dcache.blocked::no_targets               0                       # number of cycles access was blocked
system.cpu.dcache.avg_blocked_cycles::no_mshrs          nan                       # average number of cycles each access was blocked
system.cpu.dcache.avg_blocked_cycles::no_targets          nan                       # average number of cycles each access was blocked
system.cpu.dcache.writebacks::.writebacks            9                       # number of writebacks
system.cpu.dcache.writebacks::total                 9                       # number of writebacks
system.cpu.dcache.demand_mshr_hits::.cpu.data            3                       # number of demand (read+write) MSHR hits
system.cpu.dcache.demand_mshr_hits::total            3                       # number of demand (read+write) MSHR hits
system.cpu.dcache.overall_mshr_hits::.cpu.data            3                       # number of overall MSHR hits
system.cpu.dcache.overall_mshr_hits::total            3                       # number of overall MSHR hits
system.cpu.dcache.demand_mshr_misses::.cpu.data          732                       # number of demand (read+write) MSHR misses
system.cpu.dcache.demand_mshr_misses::total          732                       # number of demand (read+write) MSHR misses
system.cpu.dcache.overall_mshr_misses::.cpu.data          739                       # number of overall MSHR misses
system.cpu.dcache.overall_mshr_misses::total          739                       # number of overall MSHR misses
system.cpu.dcache.demand_mshr_miss_latency::.cpu.data     39447000                       # number of demand (read+write) MSHR miss cycles
system.cpu.dcache.demand_mshr_miss_latency::total     39447000                       # number of demand (read+write) MSHR miss cycles
system.cpu.dcache.overall_mshr_miss_latency::.cpu.data     39862000                       # number of overall MSHR miss cycles
system.cpu.dcache.overall_mshr_miss_latency::total     39862000                       # number of overall MSHR miss cycles
system.cpu.dcache.demand_mshr_miss_rate::.cpu.data     0.004016                       # mshr miss rate for demand accesses
system.cpu.dcache.demand_mshr_miss_rate::total     0.004016                       # mshr miss rate for demand accesses
system.cpu.dcache.overall_mshr_miss_rate::.cpu.data     0.004053                       # mshr miss rate for overall accesses
system.cpu.dcache.overall_mshr_miss_rate::total     0.004053                       # mshr miss rate for overall accesses
system.cpu.dcache.demand_avg_mshr_miss_latency::.cpu.data 53889.344262                       # average overall mshr miss latency
system.cpu.dcache.demand_avg_mshr_miss_latency::total 53889.344262                       # average overall mshr miss latency
system.cpu.dcache.overall_avg_mshr_miss_latency::.cpu.data 53940.460081                       # average overall mshr miss latency
system.cpu.dcache.overall_avg_mshr_miss_latency::total 53940.460081                       # average overall mshr miss latency
system.cpu.dcache.replacements                     25                       # number of replacements
system.cpu.dcache.ReadReq_hits::.cpu.data       140999                       # number of ReadReq hits
system.cpu.dcache.ReadReq_hits::total          140999                       # number of ReadReq hits
system.cpu.dcache.ReadReq_misses::.cpu.data           70                       # number of ReadReq misses
system.cpu.dcache.ReadReq_misses::total            70                       # number of ReadReq misses
system.cpu.dcache.ReadReq_miss_latency::.cpu.data      4170000                       # number of ReadReq miss cycles
system.cpu.dcache.ReadReq_miss_latency::total      4170000                       # number of ReadReq miss cycles
system.cpu.dcache.ReadReq_accesses::.cpu.data       141069                       # number of ReadReq accesses(hits+misses)
system.cpu.dcache.ReadReq_accesses::total       141069                       # number of ReadReq accesses(hits+misses)
system.cpu.dcache.ReadReq_miss_rate::.cpu.data     0.000496                       # miss rate for ReadReq accesses
system.cpu.dcache.ReadReq_miss_rate::total     0.000496                       # miss rate for ReadReq accesses
system.cpu.dcache.ReadReq_avg_miss_latency::.cpu.data 59571.428571                       # average ReadReq miss latency
system.cpu.dcache.ReadReq_avg_miss_latency::total 59571.428571                       # average ReadReq miss latency
system.cpu.dcache.ReadReq_mshr_hits::.cpu.data            3                       # number of ReadReq MSHR hits
system.cpu.dcache.ReadReq_mshr_hits::total            3                       # number of ReadReq MSHR hits
system.cpu.dcache.ReadReq_mshr_misses::.cpu.data           67                       # number of ReadReq MSHR misses
system.cpu.dcache.ReadReq_mshr_misses::total           67                       # number of ReadReq MSHR misses
system.cpu.dcache.ReadReq_mshr_miss_latency::.cpu.data      3937000                       # number of ReadReq MSHR miss cycles
system.cpu.dcache.ReadReq_mshr_miss_latency::total      3937000                       # number of ReadReq MSHR miss cycles
system.cpu.dcache.ReadReq_mshr_miss_rate::.cpu.data     0.000475                       # mshr miss rate for ReadReq accesses
system.cpu.dcache.ReadReq_mshr_miss_rate::total     0.000475                       # mshr miss rate for ReadReq accesses
system.cpu.dcache.ReadReq_avg_mshr_miss_latency::.cpu.data 58761.194030                       # average ReadReq mshr miss latency
system.cpu.dcache.ReadReq_avg_mshr_miss_latency::total 58761.194030                       # average ReadReq mshr miss latency
system.cpu.dcache.WriteReq_hits::.cpu.data        40551                       # number of WriteReq hits
system.cpu.dcache.WriteReq_hits::total          40551                       # number of WriteReq hits
system.cpu.dcache.WriteReq_misses::.cpu.data          665                       # number of WriteReq misses
system.cpu.dcache.WriteReq_misses::total          665                       # number of WriteReq misses
system.cpu.dcache.WriteReq_miss_latency::.cpu.data     36175000                       # number of WriteReq miss cycles
system.cpu.dcache.WriteReq_miss_latency::total     36175000                       # number of WriteReq miss cycles
system.cpu.dcache.WriteReq_accesses::.cpu.data        41216                       # number of WriteReq accesses(hits+misses)
system.cpu.dcache.WriteReq_accesses::total        41216                       # number of WriteReq accesses(hits+misses)
system.cpu.dcache.WriteReq_miss_rate::.cpu.data     0.016135                       # miss rate for WriteReq accesses
system.cpu.dcache.WriteReq_miss_rate::total     0.016135                       # miss rate for WriteReq accesses
system.cpu.dcache.WriteReq_avg_miss_latency::.cpu.data 54398.496241                       # average WriteReq miss latency
system.cpu.dcache.WriteReq_avg_miss_latency::total 54398.496241                       # average WriteReq miss latency
system.cpu.dcache.WriteReq_mshr_misses::.cpu.data          665                       # number of WriteReq MSHR misses
system.cpu.dcache.WriteReq_mshr_misses::total          665                       # number of WriteReq MSHR misses
system.cpu.dcache.WriteReq_mshr_miss_latency::.cpu.data     35510000                       # number of WriteReq MSHR miss cycles
system.cpu.dcache.WriteReq_mshr_miss_latency::total     35510000                       # number of WriteReq MSHR miss cycles
system.cpu.dcache.WriteReq_mshr_miss_rate::.cpu.data     0.016135                       # mshr miss rate for WriteReq accesses
system.cpu.dcache.WriteReq_mshr_miss_rate::total     0.016135                       # mshr miss rate for WriteReq accesses
system.cpu.dcache.WriteReq_avg_mshr_miss_latency::.cpu.data 53398.496241                       # average WriteReq mshr miss latency
system.cpu.dcache.WriteReq_avg_mshr_miss_latency::total 53398.496241                       # average WriteReq mshr miss latency
system.cpu.dcache.SoftPFReq_hits::.cpu.data           20                       # number of SoftPFReq hits
system.cpu.dcache.SoftPFReq_hits::total            20                       # number of SoftPFReq hits
system.cpu.dcache.SoftPFReq_misses::.cpu.data           10                       # number of SoftPFReq misses
system.cpu.dcache.SoftPFReq_misses::total           10                       # number of SoftPFReq misses
system.cpu.dcache.SoftPFReq_accesses::.cpu.data           30                       # number of SoftPFReq accesses(hits+misses)
system.cpu.dcache.SoftPFReq_accesses::total           30                       # number of SoftPFReq accesses(hits+misses)
system.cpu.dcache.SoftPFReq_miss_rate::.cpu.data     0.333333                       # miss rate for SoftPFReq accesses
system.cpu.dcache.SoftPFReq_miss_rate::total     0.333333                       # miss rate for SoftPFReq accesses
system.cpu.dcache.SoftPFReq_mshr_misses::.cpu.data            7                       # number of SoftPFReq MSHR misses
system.cpu.dcache.SoftPFReq_mshr_misses::total            7                       # number of SoftPFReq MSHR misses
system.cpu.dcache.SoftPFReq_mshr_miss_latency::.cpu.data       415000                       # number of SoftPFReq MSHR miss cycles
system.cpu.dcache.SoftPFReq_mshr_miss_latency::total       415000                       # number of SoftPFReq MSHR miss cycles
system.cpu.dcache.SoftPFReq_mshr_miss_rate::.cpu.data     0.233333                       # mshr miss rate for SoftPFReq accesses
system.cpu.dcache.SoftPFReq_mshr_miss_rate::total     0.233333                       # mshr miss rate for SoftPFReq accesses
system.cpu.dcache.SoftPFReq_avg_mshr_miss_latency::.cpu.data 59285.714286                       # average SoftPFReq mshr miss latency
system.cpu.dcache.SoftPFReq_avg_mshr_miss_latency::total 59285.714286                       # average SoftPFReq mshr miss latency
system.cpu.dcache.LoadLockedReq_hits::.cpu.data           14                       # number of LoadLockedReq hits
system.cpu.dcache.LoadLockedReq_hits::total           14                       # number of LoadLockedReq hits
system.cpu.dcache.LoadLockedReq_misses::.cpu.data            3                       # number of LoadLockedReq misses
system.cpu.dcache.LoadLockedReq_misses::total            3                       # number of LoadLockedReq misses
system.cpu.dcache.LoadLockedReq_miss_latency::.cpu.data       167000                       # number of LoadLockedReq miss cycles
system.cpu.dcache.LoadLockedReq_miss_latency::total       167000                       # number of LoadLockedReq miss cycles
system.cpu.dcache.LoadLockedReq_accesses::.cpu.data           17                       # number of LoadLockedReq accesses(hits+misses)
system.cpu.dcache.LoadLockedReq_accesses::total           17                       # number of LoadLockedReq accesses(hits+misses)
system.cpu.dcache.LoadLockedReq_miss_rate::.cpu.data     0.176471                       # miss rate for LoadLockedReq accesses
system.cpu.dcache.LoadLockedReq_miss_rate::total     0.176471                       # miss rate for LoadLockedReq accesses
system.cpu.dcache.LoadLockedReq_avg_miss_latency::.cpu.data 55666.666667                       # average LoadLockedReq miss latency
system.cpu.dcache.LoadLockedReq_avg_miss_latency::total 55666.666667                       # average LoadLockedReq miss latency
system.cpu.dcache.LoadLockedReq_mshr_misses::.cpu.data            3                       # number of LoadLockedReq MSHR misses
system.cpu.dcache.LoadLockedReq_mshr_misses::total            3                       # number of LoadLockedReq MSHR misses
system.cpu.dcache.LoadLockedReq_mshr_miss_latency::.cpu.data       164000                       # number of LoadLockedReq MSHR miss cycles
system.cpu.dcache.LoadLockedReq_mshr_miss_latency::total       164000                       # number of LoadLockedReq MSHR miss cycles
system.cpu.dcache.LoadLockedReq_mshr_miss_rate::.cpu.data     0.176471                       # mshr miss rate for LoadLockedReq accesses
system.cpu.dcache.LoadLockedReq_mshr_miss_rate::total     0.176471                       # mshr miss rate for LoadLockedReq accesses
system.cpu.dcache.LoadLockedReq_avg_mshr_miss_latency::.cpu.data 54666.666667                       # average LoadLockedReq mshr miss latency
system.cpu.dcache.LoadLockedReq_avg_mshr_miss_latency::total 54666.666667                       # average LoadLockedReq mshr miss latency
system.cpu.dcache.StoreCondReq_hits::.cpu.data           17                       # number of StoreCondReq hits
system.cpu.dcache.StoreCondReq_hits::total           17                       # number of StoreCondReq hits
system.cpu.dcache.StoreCondReq_accesses::.cpu.data           17                       # number of StoreCondReq accesses(hits+misses)
system.cpu.dcache.StoreCondReq_accesses::total           17                       # number of StoreCondReq accesses(hits+misses)
system.cpu.dcache.tags.pwrStateResidencyTicks::UNDEFINED    532405000                       # Cumulative time (in ticks) in various power states
system.cpu.dcache.tags.tagsinuse           552.598825                       # Cycle average of tags in use
system.cpu.dcache.tags.total_refs              182343                       # Total number of references to valid blocks.
system.cpu.dcache.tags.sampled_refs               742                       # Sample count of references to valid blocks.
system.cpu.dcache.tags.avg_refs            245.745283                       # Average number of references to valid blocks.
system.cpu.dcache.tags.warmup_cycle            162000                       # Cycle when the warmup percentage was hit.
system.cpu.dcache.tags.occ_blocks::.cpu.data   552.598825                       # Average occupied blocks per requestor
system.cpu.dcache.tags.occ_percent::.cpu.data     0.539647                       # Average percentage of cache occupancy
system.cpu.dcache.tags.occ_percent::total     0.539647                       # Average percentage of cache occupancy
system.cpu.dcache.tags.occ_task_id_blocks::1024          717                       # Occupied blocks per task id
system.cpu.dcache.tags.age_task_id_blocks_1024::0           13                       # Occupied blocks per task id
system.cpu.dcache.tags.age_task_id_blocks_1024::2          704                       # Occupied blocks per task id
system.cpu.dcache.tags.occ_task_id_percent::1024     0.700195                       # Percentage of cache occupancy per task id
system.cpu.dcache.tags.tag_accesses            365440                       # Number of tag accesses
system.cpu.dcache.tags.data_accesses           365440                       # Number of data accesses

---------- End Simulation Statistics   ----------
